Circuit: * C:\Users\Taewoo Kim\OneDrive - BCIT\C. Third year\Lv6\ELEX 7620\Lab 01\x7620_template.asc

Direct Newton iteration for .op point succeeded.

Date: Sun Jan 12 18:16:58 2025
Total elapsed time: 0.032 seconds.

tnom = 27
temp = 27
method = trap
totiter = 3
traniter = 0
tranpoints = 0
accept = 0
rejected = 0
matrix size = 10
fillins = 1
solver = Normal
Matrix Compiler1:      25 opcodes
Matrix Compiler2: 828 bytes object code size
