Circuit: * C:\Users\Taewoo Kim\OneDrive - BCIT\C. Third year\Lv6\ELEX 7620\ELEX7620-Signal-Processing-Filter\Lab 03 - Tow Thomas Biquad Filter & Bessel Lowpass Filter\LTSpice\Butterworth\x7620_template.asc

Direct Newton iteration for .op point succeeded.

Date: Thu Jan 30 11:49:09 2025
Total elapsed time: 0.041 seconds.

tnom = 27
temp = 27
method = trap
totiter = 3
traniter = 0
tranpoints = 0
accept = 0
rejected = 0
matrix size = 15
fillins = 21
solver = Normal
Matrix Compiler1:     106 opcodes
Matrix Compiler2: 1.90 KB object code size
