Circuit: * C:\Users\tsk\OneDrive - BCIT\C. Third year\Lv6\ELEX 7620\ELEX7620-Signal-Processing-Filter\Lab 02 - PWM DAC Filter\LTSpice\x7620_template.asc

Direct Newton iteration for .op point succeeded.

Date: Thu Jan 23 14:40:52 2025
Total elapsed time: 0.149 seconds.

tnom = 27
temp = 27
method = trap
totiter = 3
traniter = 0
tranpoints = 0
accept = 0
rejected = 0
matrix size = 13
fillins = 2
solver = Normal
Avg thread counts: 4.0/0.0/4.0/4.0
Matrix Compiler1:      42 opcodes
Matrix Compiler2: 1.22 KB object code size
